<?xml version="1.0" encoding="UTF-8"?>

<routes>
  <vType id="type1" accel="0.8" decel="4.5" sigma="0.5" length="5.0" maxSpeed="70.0"/>
  <route id="wholeHighway" color="1,1,0" edges="1a 2a 3a 4a 5a 6a 7a 8a 9a 10a 11a 12a 13a 14a 15a 16a 17a 18a 19a 20a 21a"/>
  <vehicle id="0" type="type1" route="wholeHighway" depart="57.0" departPos="0.0" departSpeed="33.200355295494255" departLane="1"/>
  <vehicle id="1" type="type1" route="wholeHighway" depart="119.0" departPos="0.0" departSpeed="33.52760559190129" departLane="0"/>
  <vehicle id="2" type="type1" route="wholeHighway" depart="142.0" departPos="0.0" departSpeed="31.271570352544266" departLane="1"/>
  <vehicle id="3" type="type1" route="wholeHighway" depart="159.0" departPos="0.0" departSpeed="32.98113116599387" departLane="1"/>
  <vehicle id="4" type="type1" route="wholeHighway" depart="183.0" departPos="0.0" departSpeed="20.67094052337256" departLane="1"/>
  <vehicle id="5" type="type1" route="wholeHighway" depart="137.0" departPos="0.0" departSpeed="20.914323229190472" departLane="1"/>
  <vehicle id="6" type="type1" route="wholeHighway" depart="156.0" departPos="0.0" departSpeed="29.748215992105777" departLane="1"/>
  <vehicle id="7" type="type1" route="wholeHighway" depart="177.0" departPos="0.0" departSpeed="21.777034504399577" departLane="1"/>
  <vehicle id="8" type="type1" route="wholeHighway" depart="206.0" departPos="0.0" departSpeed="30.10075360968404" departLane="0"/>
  <vehicle id="9" type="type1" route="wholeHighway" depart="230.0" departPos="0.0" departSpeed="28.076023990430556" departLane="0"/>
  <vehicle id="10" type="type1" route="wholeHighway" depart="252.0" departPos="0.0" departSpeed="34.59208797060012" departLane="0"/>
  <vehicle id="11" type="type1" route="wholeHighway" depart="286.0" departPos="0.0" departSpeed="33.260295095856684" departLane="1"/>
  <vehicle id="12" type="type1" route="wholeHighway" depart="320.0" departPos="0.0" departSpeed="19.418260872110583" departLane="1"/>
  <vehicle id="13" type="type1" route="wholeHighway" depart="300.0" departPos="0.0" departSpeed="35.08675514587212" departLane="0"/>
  <vehicle id="14" type="type1" route="wholeHighway" depart="327.0" departPos="0.0" departSpeed="28.02878253116339" departLane="1"/>
  <vehicle id="15" type="type1" route="wholeHighway" depart="360.0" departPos="0.0" departSpeed="32.0278304290138" departLane="1"/>
  <vehicle id="16" type="type1" route="wholeHighway" depart="365.0" departPos="0.0" departSpeed="10.115521489818732" departLane="0"/>
  <vehicle id="17" type="type1" route="wholeHighway" depart="393.0" departPos="0.0" departSpeed="20.71688547171126" departLane="1"/>
  <vehicle id="18" type="type1" route="wholeHighway" depart="428.0" departPos="0.0" departSpeed="22.578443198985525" departLane="1"/>
  <vehicle id="19" type="type1" route="wholeHighway" depart="430.0" departPos="0.0" departSpeed="29.055976792062157" departLane="1"/>
  <vehicle id="20" type="type1" route="wholeHighway" depart="465.0" departPos="0.0" departSpeed="31.169932891149063" departLane="1"/>
  <vehicle id="21" type="type1" route="wholeHighway" depart="501.0" departPos="0.0" departSpeed="25.827317420576357" departLane="1"/>
  <vehicle id="22" type="type1" route="wholeHighway" depart="493.0" departPos="0.0" departSpeed="18.656402677743912" departLane="1"/>
  <vehicle id="23" type="type1" route="wholeHighway" depart="496.0" departPos="0.0" departSpeed="30.97154641047091" departLane="1"/>
  <vehicle id="24" type="type1" route="wholeHighway" depart="503.0" departPos="0.0" departSpeed="29.912728718448484" departLane="1"/>
  <vehicle id="25" type="type1" route="wholeHighway" depart="509.0" departPos="0.0" departSpeed="28.23215795798648" departLane="1"/>
  <vehicle id="26" type="type1" route="wholeHighway" depart="523.0" departPos="0.0" departSpeed="33.782744300033144" departLane="1"/>
  <vehicle id="27" type="type1" route="wholeHighway" depart="534.0" departPos="0.0" departSpeed="8.490745318307578" departLane="1"/>
  <vehicle id="28" type="type1" route="wholeHighway" depart="545.0" departPos="0.0" departSpeed="22.57984482294826" departLane="1"/>
  <vehicle id="29" type="type1" route="wholeHighway" depart="553.0" departPos="0.0" departSpeed="25.09630993470217" departLane="1"/>
  <vehicle id="30" type="type1" route="wholeHighway" depart="572.0" departPos="0.0" departSpeed="32.987586849689635" departLane="1"/>
  <vehicle id="31" type="type1" route="wholeHighway" depart="582.0" departPos="0.0" departSpeed="20.559074292130212" departLane="1"/>
  <vehicle id="32" type="type1" route="wholeHighway" depart="594.0" departPos="0.0" departSpeed="21.607866105494708" departLane="1"/>
  <vehicle id="33" type="type1" route="wholeHighway" depart="612.0" departPos="0.0" departSpeed="26.2866846304508" departLane="1"/>
  <vehicle id="34" type="type1" route="wholeHighway" depart="655.0" departPos="0.0" departSpeed="33.44231040921112" departLane="0"/>
  <vehicle id="35" type="type1" route="wholeHighway" depart="669.0" departPos="0.0" departSpeed="22.91172410428668" departLane="1"/>
  <vehicle id="36" type="type1" route="wholeHighway" depart="690.0" departPos="0.0" departSpeed="20.87908146894416" departLane="1"/>
  <vehicle id="37" type="type1" route="wholeHighway" depart="709.0" departPos="0.0" departSpeed="26.269906666632295" departLane="1"/>
  <vehicle id="38" type="type1" route="wholeHighway" depart="728.0" departPos="0.0" departSpeed="26.216090655747568" departLane="0"/>
  <vehicle id="39" type="type1" route="wholeHighway" depart="741.0" departPos="0.0" departSpeed="17.496207232625416" departLane="1"/>
  <vehicle id="40" type="type1" route="wholeHighway" depart="751.0" departPos="0.0" departSpeed="21.738409150635267" departLane="1"/>
  <vehicle id="41" type="type1" route="wholeHighway" depart="773.0" departPos="0.0" departSpeed="31.79990791881239" departLane="1"/>
  <vehicle id="42" type="type1" route="wholeHighway" depart="790.0" departPos="0.0" departSpeed="24.032064901939773" departLane="1"/>
  <vehicle id="43" type="type1" route="wholeHighway" depart="778.0" departPos="0.0" departSpeed="32.22546746400832" departLane="0"/>
  <vehicle id="44" type="type1" route="wholeHighway" depart="792.0" departPos="0.0" departSpeed="13.203329342492475" departLane="1"/>
  <vehicle id="45" type="type1" route="wholeHighway" depart="802.0" departPos="0.0" departSpeed="26.937282710004656" departLane="1"/>
  <vehicle id="46" type="type1" route="wholeHighway" depart="817.0" departPos="0.0" departSpeed="1.9398636284708708" departLane="1"/>
  <vehicle id="47" type="type1" route="wholeHighway" depart="824.0" departPos="0.0" departSpeed="21.017870789769432" departLane="1"/>
  <vehicle id="48" type="type1" route="wholeHighway" depart="840.0" departPos="0.0" departSpeed="34.77054857005865" departLane="1"/>
  <vehicle id="49" type="type1" route="wholeHighway" depart="786.0" departPos="0.0" departSpeed="7.254097304729374" departLane="1"/>
  <vehicle id="50" type="type1" route="wholeHighway" depart="800.0" departPos="0.0" departSpeed="32.67682042695864" departLane="1"/>
  <vehicle id="51" type="type1" route="wholeHighway" depart="808.0" departPos="0.0" departSpeed="19.405044221981527" departLane="1"/>
  <vehicle id="52" type="type1" route="wholeHighway" depart="819.0" departPos="0.0" departSpeed="27.890959363916203" departLane="1"/>
  <vehicle id="53" type="type1" route="wholeHighway" depart="830.0" departPos="0.0" departSpeed="20.553946921531782" departLane="1"/>
  <vehicle id="54" type="type1" route="wholeHighway" depart="862.0" departPos="0.0" departSpeed="25.499140517515784" departLane="1"/>
  <vehicle id="55" type="type1" route="wholeHighway" depart="899.0" departPos="0.0" departSpeed="16.473705457445213" departLane="1"/>
  <vehicle id="56" type="type1" route="wholeHighway" depart="924.0" departPos="0.0" departSpeed="25.584725264454093" departLane="1"/>
  <vehicle id="57" type="type1" route="wholeHighway" depart="948.0" departPos="0.0" departSpeed="19.05481987958416" departLane="1"/>
  <vehicle id="58" type="type1" route="wholeHighway" depart="975.0" departPos="0.0" departSpeed="15.634783459745185" departLane="1"/>
  <vehicle id="59" type="type1" route="wholeHighway" depart="982.0" departPos="0.0" departSpeed="15.241739470796226" departLane="1"/>
  <vehicle id="60" type="type1" route="wholeHighway" depart="997.0" departPos="0.0" departSpeed="29.4111912609363" departLane="1"/>
  <vehicle id="61" type="type1" route="wholeHighway" depart="1021.0" departPos="0.0" departSpeed="30.04909612657473" departLane="1"/>
  <vehicle id="62" type="type1" route="wholeHighway" depart="1077.0" departPos="0.0" departSpeed="9.24114267188525" departLane="1"/>
  <vehicle id="63" type="type1" route="wholeHighway" depart="1100.0" departPos="0.0" departSpeed="28.288274122317453" departLane="1"/>
  <vehicle id="64" type="type1" route="wholeHighway" depart="1119.0" departPos="0.0" departSpeed="22.882146905607815" departLane="1"/>
  <vehicle id="65" type="type1" route="wholeHighway" depart="1136.0" departPos="0.0" departSpeed="35.00575351890457" departLane="1"/>
  <vehicle id="66" type="type1" route="wholeHighway" depart="1154.0" departPos="0.0" departSpeed="29.7404055316797" departLane="0"/>
  <vehicle id="67" type="type1" route="wholeHighway" depart="1169.0" departPos="0.0" departSpeed="13.40594593160175" departLane="0"/>
  <vehicle id="68" type="type1" route="wholeHighway" depart="1184.0" departPos="0.0" departSpeed="31.323249986574538" departLane="0"/>
  <vehicle id="69" type="type1" route="wholeHighway" depart="1204.0" departPos="0.0" departSpeed="26.81355720853187" departLane="0"/>
  <vehicle id="70" type="type1" route="wholeHighway" depart="1225.0" departPos="0.0" departSpeed="21.123586783914114" departLane="1"/>
  <vehicle id="71" type="type1" route="wholeHighway" depart="1252.0" departPos="0.0" departSpeed="25.00405518483014" departLane="1"/>
  <vehicle id="72" type="type1" route="wholeHighway" depart="1266.0" departPos="0.0" departSpeed="34.66811919040616" departLane="1"/>
  <vehicle id="73" type="type1" route="wholeHighway" depart="1232.0" departPos="0.0" departSpeed="22.89082140293599" departLane="1"/>
  <vehicle id="74" type="type1" route="wholeHighway" depart="1260.0" departPos="0.0" departSpeed="30.1939715369835" departLane="1"/>
  <vehicle id="75" type="type1" route="wholeHighway" depart="1279.0" departPos="0.0" departSpeed="25.051259021374793" departLane="0"/>
  <vehicle id="76" type="type1" route="wholeHighway" depart="1293.0" departPos="0.0" departSpeed="34.48351004149446" departLane="0"/>
  <vehicle id="77" type="type1" route="wholeHighway" depart="1314.0" departPos="0.0" departSpeed="29.314853866544816" departLane="0"/>
  <vehicle id="78" type="type1" route="wholeHighway" depart="1346.0" departPos="0.0" departSpeed="32.52367225290493" departLane="1"/>
  <vehicle id="79" type="type1" route="wholeHighway" depart="1370.0" departPos="0.0" departSpeed="18.737728762557374" departLane="1"/>
  <vehicle id="80" type="type1" route="wholeHighway" depart="1379.0" departPos="0.0" departSpeed="30.52361899829656" departLane="0"/>
  <vehicle id="81" type="type1" route="wholeHighway" depart="1394.0" departPos="0.0" departSpeed="30.52132073759265" departLane="1"/>
  <vehicle id="82" type="type1" route="wholeHighway" depart="1414.0" departPos="0.0" departSpeed="27.35209303447602" departLane="1"/>
  <vehicle id="83" type="type1" route="wholeHighway" depart="1428.0" departPos="0.0" departSpeed="30.917018814163445" departLane="1"/>
  <vehicle id="84" type="type1" route="wholeHighway" depart="1438.0" departPos="0.0" departSpeed="25.60516165146737" departLane="1"/>
  <vehicle id="85" type="type1" route="wholeHighway" depart="1440.0" departPos="0.0" departSpeed="33.043348536340595" departLane="0"/>
  <vehicle id="86" type="type1" route="wholeHighway" depart="1454.0" departPos="0.0" departSpeed="27.4119519269416" departLane="1"/>
  <vehicle id="87" type="type1" route="wholeHighway" depart="1470.0" departPos="0.0" departSpeed="31.03455052533859" departLane="1"/>
  <vehicle id="88" type="type1" route="wholeHighway" depart="1494.0" departPos="0.0" departSpeed="17.671819992495863" departLane="1"/>
  <vehicle id="89" type="type1" route="wholeHighway" depart="1512.0" departPos="0.0" departSpeed="29.702744496248293" departLane="1"/>
  <vehicle id="90" type="type1" route="wholeHighway" depart="1500.0" departPos="0.0" departSpeed="22.475844072741552" departLane="0"/>
  <vehicle id="91" type="type1" route="wholeHighway" depart="1513.0" departPos="0.0" departSpeed="29.639044219090565" departLane="1"/>
  <vehicle id="92" type="type1" route="wholeHighway" depart="1531.0" departPos="0.0" departSpeed="21.984734035413236" departLane="1"/>
  <vehicle id="93" type="type1" route="wholeHighway" depart="1550.0" departPos="0.0" departSpeed="27.81659860397212" departLane="1"/>
  <vehicle id="94" type="type1" route="wholeHighway" depart="1572.0" departPos="0.0" departSpeed="33.76856176281189" departLane="1"/>
  <vehicle id="95" type="type1" route="wholeHighway" depart="1525.0" departPos="0.0" departSpeed="17.84931795006368" departLane="0"/>
  <vehicle id="96" type="type1" route="wholeHighway" depart="1562.0" departPos="0.0" departSpeed="33.84964827815796" departLane="0"/>
  <vehicle id="97" type="type1" route="wholeHighway" depart="1622.0" departPos="0.0" departSpeed="34.61945992222931" departLane="0"/>
  <vehicle id="98" type="type1" route="wholeHighway" depart="1639.0" departPos="0.0" departSpeed="28.242187977451618" departLane="1"/>
  <vehicle id="99" type="type1" route="wholeHighway" depart="1663.0" departPos="0.0" departSpeed="24.486432344819878" departLane="1"/>
  <vehicle id="100" type="type1" route="wholeHighway" depart="1681.0" departPos="0.0" departSpeed="20.95785459829869" departLane="1"/>
  <vehicle id="101" type="type1" route="wholeHighway" depart="1654.0" departPos="0.0" departSpeed="18.915555714253493" departLane="0"/>
  <vehicle id="102" type="type1" route="wholeHighway" depart="1691.0" departPos="0.0" departSpeed="15.199917455928421" departLane="0"/>
  <vehicle id="103" type="type1" route="wholeHighway" depart="1708.0" departPos="0.0" departSpeed="15.002485431124468" departLane="1"/>
  <vehicle id="104" type="type1" route="wholeHighway" depart="1721.0" departPos="0.0" departSpeed="29.157035738342454" departLane="1"/>
  <vehicle id="105" type="type1" route="wholeHighway" depart="1727.0" departPos="0.0" departSpeed="28.30736147736386" departLane="1"/>
  <vehicle id="106" type="type1" route="wholeHighway" depart="1733.0" departPos="0.0" departSpeed="35.817501193963594" departLane="1"/>
  <vehicle id="107" type="type1" route="wholeHighway" depart="1748.0" departPos="0.0" departSpeed="18.857666655829863" departLane="1"/>
  <vehicle id="108" type="type1" route="wholeHighway" depart="1691.0" departPos="0.0" departSpeed="7.8987298151145" departLane="1"/>
  <vehicle id="109" type="type1" route="wholeHighway" depart="1700.0" departPos="0.0" departSpeed="33.04477942576703" departLane="1"/>
  <vehicle id="110" type="type1" route="wholeHighway" depart="1711.0" departPos="0.0" departSpeed="32.630529955475225" departLane="1"/>
  <vehicle id="111" type="type1" route="wholeHighway" depart="1721.0" departPos="0.0" departSpeed="26.869139607465975" departLane="1"/>
  <vehicle id="112" type="type1" route="wholeHighway" depart="1732.0" departPos="0.0" departSpeed="34.638870843935265" departLane="1"/>
  <vehicle id="113" type="type1" route="wholeHighway" depart="1743.0" departPos="0.0" departSpeed="19.18871582685404" departLane="1"/>
  <vehicle id="114" type="type1" route="wholeHighway" depart="1761.0" departPos="0.0" departSpeed="23.817742190696304" departLane="1"/>
  <vehicle id="115" type="type1" route="wholeHighway" depart="1780.0" departPos="0.0" departSpeed="16.71172104347332" departLane="1"/>
  <vehicle id="116" type="type1" route="wholeHighway" depart="1800.0" departPos="0.0" departSpeed="26.85421517414778" departLane="1"/>
  <vehicle id="117" type="type1" route="wholeHighway" depart="1863.0" departPos="0.0" departSpeed="22.100471198912107" departLane="0"/>
  <vehicle id="118" type="type1" route="wholeHighway" depart="1883.0" departPos="0.0" departSpeed="26.927513757065615" departLane="1"/>
  <vehicle id="119" type="type1" route="wholeHighway" depart="1909.0" departPos="0.0" departSpeed="30.39646829535765" departLane="1"/>
  <vehicle id="120" type="type1" route="wholeHighway" depart="1925.0" departPos="0.0" departSpeed="24.862114640632264" departLane="0"/>
  <vehicle id="121" type="type1" route="wholeHighway" depart="1935.0" departPos="0.0" departSpeed="31.46787474181403" departLane="1"/>
  <vehicle id="122" type="type1" route="wholeHighway" depart="1940.0" departPos="0.0" departSpeed="11.947794334736432" departLane="1"/>
  <vehicle id="123" type="type1" route="wholeHighway" depart="1955.0" departPos="0.0" departSpeed="13.96224636751689" departLane="1"/>
  <vehicle id="124" type="type1" route="wholeHighway" depart="1965.0" departPos="0.0" departSpeed="15.411630377294884" departLane="1"/>
  <vehicle id="125" type="type1" route="wholeHighway" depart="1927.0" departPos="0.0" departSpeed="24.45643748894654" departLane="1"/>
  <vehicle id="126" type="type1" route="wholeHighway" depart="1934.0" departPos="0.0" departSpeed="19.522802247774038" departLane="1"/>
  <vehicle id="127" type="type1" route="wholeHighway" depart="1945.0" departPos="0.0" departSpeed="34.8135305802642" departLane="1"/>
  <vehicle id="128" type="type1" route="wholeHighway" depart="1955.0" departPos="0.0" departSpeed="23.41061100425741" departLane="1"/>
  <vehicle id="129" type="type1" route="wholeHighway" depart="1964.0" departPos="0.0" departSpeed="24.10335674593931" departLane="1"/>
  <vehicle id="130" type="type1" route="wholeHighway" depart="1972.0" departPos="0.0" departSpeed="24.268264583193442" departLane="1"/>
  <vehicle id="131" type="type1" route="wholeHighway" depart="1985.0" departPos="0.0" departSpeed="17.6594166334986" departLane="1"/>
  <vehicle id="132" type="type1" route="wholeHighway" depart="2000.0" departPos="0.0" departSpeed="34.50694583215889" departLane="0"/>
  <vehicle id="133" type="type1" route="wholeHighway" depart="2016.0" departPos="0.0" departSpeed="30.55521560829761" departLane="0"/>
  <vehicle id="134" type="type1" route="wholeHighway" depart="2034.0" departPos="0.0" departSpeed="31.79857605247051" departLane="0"/>
  <vehicle id="135" type="type1" route="wholeHighway" depart="2049.0" departPos="0.0" departSpeed="21.28677212075641" departLane="1"/>
  <vehicle id="136" type="type1" route="wholeHighway" depart="2065.0" departPos="0.0" departSpeed="31.52812462551455" departLane="1"/>
  <vehicle id="137" type="type1" route="wholeHighway" depart="2084.0" departPos="0.0" departSpeed="25.26381651330267" departLane="1"/>
  <vehicle id="138" type="type1" route="wholeHighway" depart="2052.0" departPos="0.0" departSpeed="34.64059280418236" departLane="0"/>
  <vehicle id="139" type="type1" route="wholeHighway" depart="2074.0" departPos="0.0" departSpeed="33.223239322541836" departLane="0"/>
  <vehicle id="140" type="type1" route="wholeHighway" depart="2085.0" departPos="0.0" departSpeed="28.522647902223962" departLane="0"/>
  <vehicle id="141" type="type1" route="wholeHighway" depart="2094.0" departPos="0.0" departSpeed="22.742673739686527" departLane="0"/>
  <vehicle id="142" type="type1" route="wholeHighway" depart="2105.0" departPos="0.0" departSpeed="17.419048024085875" departLane="1"/>
  <vehicle id="143" type="type1" route="wholeHighway" depart="2122.0" departPos="0.0" departSpeed="35.34466811795252" departLane="1"/>
  <vehicle id="144" type="type1" route="wholeHighway" depart="2135.0" departPos="0.0" departSpeed="12.74408013038165" departLane="1"/>
  <vehicle id="145" type="type1" route="wholeHighway" depart="2143.0" departPos="0.0" departSpeed="26.517444286874895" departLane="1"/>
  <vehicle id="146" type="type1" route="wholeHighway" depart="2153.0" departPos="0.0" departSpeed="32.148613057087594" departLane="1"/>
  <vehicle id="147" type="type1" route="wholeHighway" depart="2127.0" departPos="0.0" departSpeed="24.772316627570873" departLane="1"/>
  <vehicle id="148" type="type1" route="wholeHighway" depart="2152.0" departPos="0.0" departSpeed="20.330416858055404" departLane="1"/>
  <vehicle id="149" type="type1" route="wholeHighway" depart="2163.0" departPos="0.0" departSpeed="35.41292143304991" departLane="1"/>
  <vehicle id="150" type="type1" route="wholeHighway" depart="2221.0" departPos="0.0" departSpeed="19.194441064507366" departLane="0"/>
  <vehicle id="151" type="type1" route="wholeHighway" depart="2243.0" departPos="0.0" departSpeed="30.689388580674116" departLane="1"/>
  <vehicle id="152" type="type1" route="wholeHighway" depart="2261.0" departPos="0.0" departSpeed="32.2772286708897" departLane="1"/>
  <vehicle id="153" type="type1" route="wholeHighway" depart="2276.0" departPos="0.0" departSpeed="25.307771574447937" departLane="1"/>
  <vehicle id="154" type="type1" route="wholeHighway" depart="2240.0" departPos="0.0" departSpeed="20.30324269893445" departLane="1"/>
  <vehicle id="155" type="type1" route="wholeHighway" depart="2257.0" departPos="0.0" departSpeed="30.22455874806535" departLane="1"/>
  <vehicle id="156" type="type1" route="wholeHighway" depart="2284.0" departPos="0.0" departSpeed="18.97992608688914" departLane="1"/>
  <vehicle id="157" type="type1" route="wholeHighway" depart="2300.0" departPos="0.0" departSpeed="33.66306466053961" departLane="0"/>
  <vehicle id="158" type="type1" route="wholeHighway" depart="2321.0" departPos="0.0" departSpeed="27.153503028177226" departLane="0"/>
  <vehicle id="159" type="type1" route="wholeHighway" depart="2336.0" departPos="0.0" departSpeed="31.84029092830329" departLane="0"/>
  <vehicle id="160" type="type1" route="wholeHighway" depart="2353.0" departPos="0.0" departSpeed="34.999655733301694" departLane="1"/>
  <vehicle id="161" type="type1" route="wholeHighway" depart="2366.0" departPos="0.0" departSpeed="33.83865668844842" departLane="1"/>
  <vehicle id="162" type="type1" route="wholeHighway" depart="2392.0" departPos="0.0" departSpeed="21.246575531805462" departLane="1"/>
  <vehicle id="163" type="type1" route="wholeHighway" depart="2400.0" departPos="0.0" departSpeed="18.02820128157556" departLane="0"/>
  <vehicle id="164" type="type1" route="wholeHighway" depart="2412.0" departPos="0.0" departSpeed="17.603705511959785" departLane="1"/>
  <vehicle id="165" type="type1" route="wholeHighway" depart="2430.0" departPos="0.0" departSpeed="17.473859667603996" departLane="1"/>
  <vehicle id="166" type="type1" route="wholeHighway" depart="2461.0" departPos="0.0" departSpeed="27.418444937982585" departLane="1"/>
  <vehicle id="167" type="type1" route="wholeHighway" depart="2415.0" departPos="0.0" departSpeed="18.386081420202547" departLane="1"/>
  <vehicle id="168" type="type1" route="wholeHighway" depart="2434.0" departPos="0.0" departSpeed="33.64353993044234" departLane="1"/>
  <vehicle id="169" type="type1" route="wholeHighway" depart="2452.0" departPos="0.0" departSpeed="26.838449288512674" departLane="1"/>
  <vehicle id="170" type="type1" route="wholeHighway" depart="2464.0" departPos="0.0" departSpeed="26.36920942432379" departLane="1"/>
  <vehicle id="171" type="type1" route="wholeHighway" depart="2478.0" departPos="0.0" departSpeed="18.240092880021294" departLane="1"/>
  <vehicle id="172" type="type1" route="wholeHighway" depart="2505.0" departPos="0.0" departSpeed="32.91988137708919" departLane="1"/>
  <vehicle id="173" type="type1" route="wholeHighway" depart="2579.0" departPos="0.0" departSpeed="23.765707395112106" departLane="0"/>
  <vehicle id="174" type="type1" route="wholeHighway" depart="2595.0" departPos="0.0" departSpeed="29.03387657406797" departLane="1"/>
  <vehicle id="175" type="type1" route="wholeHighway" depart="2613.0" departPos="0.0" departSpeed="32.20709696871581" departLane="1"/>
  <vehicle id="176" type="type1" route="wholeHighway" depart="2630.0" departPos="0.0" departSpeed="31.89248774127417" departLane="1"/>
  <vehicle id="177" type="type1" route="wholeHighway" depart="2641.0" departPos="0.0" departSpeed="27.117991295401147" departLane="1"/>
  <vehicle id="178" type="type1" route="wholeHighway" depart="2593.0" departPos="0.0" departSpeed="33.46270290621099" departLane="1"/>
  <vehicle id="179" type="type1" route="wholeHighway" depart="2607.0" departPos="0.0" departSpeed="30.111534166349813" departLane="1"/>
  <vehicle id="180" type="type1" route="wholeHighway" depart="2624.0" departPos="0.0" departSpeed="27.606921104091406" departLane="1"/>
  <vehicle id="181" type="type1" route="wholeHighway" depart="2640.0" departPos="0.0" departSpeed="20.593958715251116" departLane="1"/>
  <vehicle id="182" type="type1" route="wholeHighway" depart="2699.0" departPos="0.0" departSpeed="26.43645390040712" departLane="0"/>
  <vehicle id="183" type="type1" route="wholeHighway" depart="2712.0" departPos="0.0" departSpeed="29.825630775469882" departLane="1"/>
  <vehicle id="184" type="type1" route="wholeHighway" depart="2732.0" departPos="0.0" departSpeed="22.439670895894842" departLane="1"/>
  <vehicle id="185" type="type1" route="wholeHighway" depart="2755.0" departPos="0.0" departSpeed="25.70400306298479" departLane="1"/>
  <vehicle id="186" type="type1" route="wholeHighway" depart="2772.0" departPos="0.0" departSpeed="26.730775025003535" departLane="1"/>
  <vehicle id="187" type="type1" route="wholeHighway" depart="2729.0" departPos="0.0" departSpeed="32.27804162818217" departLane="0"/>
  <vehicle id="188" type="type1" route="wholeHighway" depart="2761.0" departPos="0.0" departSpeed="27.187156238148106" departLane="0"/>
  <vehicle id="189" type="type1" route="wholeHighway" depart="2785.0" departPos="0.0" departSpeed="35.22973817976106" departLane="1"/>
  <vehicle id="190" type="type1" route="wholeHighway" depart="2822.0" departPos="0.0" departSpeed="33.426075540738665" departLane="1"/>
  <vehicle id="191" type="type1" route="wholeHighway" depart="2781.0" departPos="0.0" departSpeed="30.817251486190543" departLane="1"/>
  <vehicle id="192" type="type1" route="wholeHighway" depart="2797.0" departPos="0.0" departSpeed="16.87350900495715" departLane="1"/>
  <vehicle id="193" type="type1" route="wholeHighway" depart="2810.0" departPos="0.0" departSpeed="22.431929984425953" departLane="1"/>
  <vehicle id="194" type="type1" route="wholeHighway" depart="2833.0" departPos="0.0" departSpeed="34.399483006993314" departLane="1"/>
  <vehicle id="195" type="type1" route="wholeHighway" depart="2834.0" departPos="0.0" departSpeed="23.04583155262394" departLane="1"/>
  <vehicle id="196" type="type1" route="wholeHighway" depart="2840.0" departPos="0.0" departSpeed="32.68240756085933" departLane="1"/>
  <vehicle id="197" type="type1" route="wholeHighway" depart="2854.0" departPos="0.0" departSpeed="32.668912457066824" departLane="1"/>
  <vehicle id="198" type="type1" route="wholeHighway" depart="2863.0" departPos="0.0" departSpeed="32.3941505021686" departLane="1"/>
  <vehicle id="199" type="type1" route="wholeHighway" depart="2925.0" departPos="0.0" departSpeed="28.37707331343227" departLane="0"/>
  <vehicle id="200" type="type1" route="wholeHighway" depart="2964.0" departPos="0.0" departSpeed="21.142281168003947" departLane="0"/>
  <vehicle id="201" type="type1" route="wholeHighway" depart="3027.0" departPos="0.0" departSpeed="22.6511989563708" departLane="1"/>
  <vehicle id="202" type="type1" route="wholeHighway" depart="3008.0" departPos="0.0" departSpeed="27.714037364006966" departLane="0"/>
  <vehicle id="203" type="type1" route="wholeHighway" depart="3010.0" departPos="0.0" departSpeed="13.24384770202413" departLane="1"/>
  <vehicle id="204" type="type1" route="wholeHighway" depart="3017.0" departPos="0.0" departSpeed="21.765479575529014" departLane="1"/>
  <vehicle id="205" type="type1" route="wholeHighway" depart="3027.0" departPos="0.0" departSpeed="33.215163730993766" departLane="1"/>
  <vehicle id="206" type="type1" route="wholeHighway" depart="3037.0" departPos="0.0" departSpeed="35.30104959079098" departLane="1"/>
  <vehicle id="207" type="type1" route="wholeHighway" depart="3044.0" departPos="0.0" departSpeed="32.58621637986122" departLane="1"/>
  <vehicle id="208" type="type1" route="wholeHighway" depart="3051.0" departPos="0.0" departSpeed="21.494318044451767" departLane="1"/>
  <vehicle id="209" type="type1" route="wholeHighway" depart="3058.0" departPos="0.0" departSpeed="32.13808153678369" departLane="1"/>
  <vehicle id="210" type="type1" route="wholeHighway" depart="3068.0" departPos="0.0" departSpeed="16.74705726001901" departLane="1"/>
  <vehicle id="211" type="type1" route="wholeHighway" depart="3020.0" departPos="0.0" departSpeed="32.49367536717836" departLane="1"/>
  <vehicle id="212" type="type1" route="wholeHighway" depart="3038.0" departPos="0.0" departSpeed="22.725358604924704" departLane="1"/>
  <vehicle id="213" type="type1" route="wholeHighway" depart="3061.0" departPos="0.0" departSpeed="19.32461490117044" departLane="1"/>
  <vehicle id="214" type="type1" route="wholeHighway" depart="3083.0" departPos="0.0" departSpeed="18.560833676858778" departLane="1"/>
  <vehicle id="215" type="type1" route="wholeHighway" depart="3101.0" departPos="0.0" departSpeed="19.07346233517315" departLane="1"/>
  <vehicle id="216" type="type1" route="wholeHighway" depart="3122.0" departPos="0.0" departSpeed="29.652424172665512" departLane="1"/>
  <vehicle id="217" type="type1" route="wholeHighway" depart="3142.0" departPos="0.0" departSpeed="21.61077135883389" departLane="0"/>
  <vehicle id="218" type="type1" route="wholeHighway" depart="3165.0" departPos="0.0" departSpeed="34.98529363604973" departLane="0"/>
  <vehicle id="219" type="type1" route="wholeHighway" depart="3185.0" departPos="0.0" departSpeed="34.59520161249294" departLane="0"/>