<?xml version="1.0" encoding="UTF-8"?>

<routes>
  <vType id="type1" accel="0.8" decel="4.5" sigma="0.5" length="5.0" maxSpeed="70.0"/>
  <route id="wholeHighway" color="1,1,0" edges="7b 8b 9b 10b 11b"/>
  <vehicle id="0" type="type1" route="wholeHighway" depart="58.0" departPos="95.0" departSpeed="36.0" departLane="1"/>
  <vehicle id="1" type="type1" route="wholeHighway" depart="115.0" departPos="95.0" departSpeed="32.47383426118261" departLane="0"/>
  <vehicle id="2" type="type1" route="wholeHighway" depart="129.0" departPos="95.0" departSpeed="32.65846373674009" departLane="1"/>
  <vehicle id="3" type="type1" route="wholeHighway" depart="145.0" departPos="95.0" departSpeed="33.498588025875094" departLane="1"/>
  <vehicle id="4" type="type1" route="wholeHighway" depart="157.0" departPos="95.0" departSpeed="33.045044241536914" departLane="1"/>
  <vehicle id="5" type="type1" route="wholeHighway" depart="140.0" departPos="95.0" departSpeed="29.351696343955066" departLane="1"/>
  <vehicle id="6" type="type1" route="wholeHighway" depart="156.0" departPos="95.0" departSpeed="29.89983350383884" departLane="1"/>
  <vehicle id="7" type="type1" route="wholeHighway" depart="183.0" departPos="95.0" departSpeed="29.80684250211038" departLane="1"/>
  <vehicle id="8" type="type1" route="wholeHighway" depart="199.0" departPos="95.0" departSpeed="33.20150770136804" departLane="0"/>
  <vehicle id="9" type="type1" route="wholeHighway" depart="219.0" departPos="95.0" departSpeed="32.98625560733838" departLane="0"/>
  <vehicle id="10" type="type1" route="wholeHighway" depart="245.0" departPos="95.0" departSpeed="33.919381511018706" departLane="0"/>
  <vehicle id="11" type="type1" route="wholeHighway" depart="273.0" departPos="95.0" departSpeed="26.690566140200957" departLane="1"/>
  <vehicle id="12" type="type1" route="wholeHighway" depart="312.0" departPos="95.0" departSpeed="27.16181136780998" departLane="1"/>
  <vehicle id="13" type="type1" route="wholeHighway" depart="297.0" departPos="95.0" departSpeed="36.0" departLane="0"/>
  <vehicle id="14" type="type1" route="wholeHighway" depart="318.0" departPos="95.0" departSpeed="29.201640146051567" departLane="1"/>
  <vehicle id="15" type="type1" route="wholeHighway" depart="355.0" departPos="95.0" departSpeed="29.157148883305574" departLane="1"/>
  <vehicle id="16" type="type1" route="wholeHighway" depart="369.0" departPos="95.0" departSpeed="31.228911191698824" departLane="0"/>
  <vehicle id="17" type="type1" route="wholeHighway" depart="396.0" departPos="95.0" departSpeed="27.792914867601258" departLane="1"/>
  <vehicle id="18" type="type1" route="wholeHighway" depart="423.0" departPos="95.0" departSpeed="27.021711820032134" departLane="1"/>
  <vehicle id="19" type="type1" route="wholeHighway" depart="411.0" departPos="95.0" departSpeed="27.713051347904223" departLane="1"/>
  <vehicle id="20" type="type1" route="wholeHighway" depart="450.0" departPos="95.0" departSpeed="28.91169092868552" departLane="1"/>
  <vehicle id="21" type="type1" route="wholeHighway" depart="476.0" departPos="95.0" departSpeed="29.178754339718495" departLane="1"/>
  <vehicle id="22" type="type1" route="wholeHighway" depart="484.0" departPos="95.0" departSpeed="28.820953138482704" departLane="1"/>
  <vehicle id="23" type="type1" route="wholeHighway" depart="494.0" departPos="95.0" departSpeed="28.216597939138016" departLane="1"/>
  <vehicle id="24" type="type1" route="wholeHighway" depart="501.0" departPos="95.0" departSpeed="27.226307931357624" departLane="1"/>
  <vehicle id="25" type="type1" route="wholeHighway" depart="508.0" departPos="95.0" departSpeed="27.843320706691127" departLane="1"/>
  <vehicle id="26" type="type1" route="wholeHighway" depart="516.0" departPos="95.0" departSpeed="28.643535157414973" departLane="1"/>
  <vehicle id="27" type="type1" route="wholeHighway" depart="527.0" departPos="95.0" departSpeed="29.077229503220675" departLane="1"/>
  <vehicle id="28" type="type1" route="wholeHighway" depart="540.0" departPos="95.0" departSpeed="27.896064958648125" departLane="1"/>
  <vehicle id="29" type="type1" route="wholeHighway" depart="557.0" departPos="95.0" departSpeed="27.046707034697537" departLane="1"/>
  <vehicle id="30" type="type1" route="wholeHighway" depart="571.0" departPos="95.0" departSpeed="27.535154228905434" departLane="1"/>
  <vehicle id="31" type="type1" route="wholeHighway" depart="585.0" departPos="95.0" departSpeed="27.99065874427599" departLane="1"/>
  <vehicle id="32" type="type1" route="wholeHighway" depart="601.0" departPos="95.0" departSpeed="27.327768261207137" departLane="1"/>
  <vehicle id="33" type="type1" route="wholeHighway" depart="613.0" departPos="95.0" departSpeed="27.382052226378697" departLane="1"/>
  <vehicle id="34" type="type1" route="wholeHighway" depart="656.0" departPos="95.0" departSpeed="36.0" departLane="0"/>
  <vehicle id="35" type="type1" route="wholeHighway" depart="666.0" departPos="95.0" departSpeed="30.340474805796553" departLane="1"/>
  <vehicle id="36" type="type1" route="wholeHighway" depart="682.0" departPos="95.0" departSpeed="29.903344799363623" departLane="1"/>
  <vehicle id="37" type="type1" route="wholeHighway" depart="697.0" departPos="95.0" departSpeed="30.07930877579912" departLane="1"/>
  <vehicle id="38" type="type1" route="wholeHighway" depart="728.0" departPos="95.0" departSpeed="33.218593473320745" departLane="0"/>
  <vehicle id="39" type="type1" route="wholeHighway" depart="740.0" departPos="95.0" departSpeed="30.940203718230393" departLane="1"/>
  <vehicle id="40" type="type1" route="wholeHighway" depart="754.0" departPos="95.0" departSpeed="32.36484620841686" departLane="1"/>
  <vehicle id="41" type="type1" route="wholeHighway" depart="773.0" departPos="95.0" departSpeed="32.89698598863012" departLane="1"/>
  <vehicle id="42" type="type1" route="wholeHighway" depart="786.0" departPos="95.0" departSpeed="33.00272005451849" departLane="1"/>
  <vehicle id="43" type="type1" route="wholeHighway" depart="773.0" departPos="95.0" departSpeed="36.0" departLane="0"/>
  <vehicle id="44" type="type1" route="wholeHighway" depart="788.0" departPos="95.0" departSpeed="25.59251917218648" departLane="1"/>
  <vehicle id="45" type="type1" route="wholeHighway" depart="801.0" departPos="95.0" departSpeed="25.832454107159933" departLane="1"/>
  <vehicle id="46" type="type1" route="wholeHighway" depart="816.0" departPos="95.0" departSpeed="24.84833738231822" departLane="1"/>
  <vehicle id="47" type="type1" route="wholeHighway" depart="828.0" departPos="95.0" departSpeed="24.62666574322073" departLane="1"/>
  <vehicle id="48" type="type1" route="wholeHighway" depart="842.0" departPos="95.0" departSpeed="25.78306297567567" departLane="1"/>
  <vehicle id="49" type="type1" route="wholeHighway" depart="789.0" departPos="95.0" departSpeed="27.332077896758122" departLane="1"/>
  <vehicle id="50" type="type1" route="wholeHighway" depart="798.0" departPos="95.0" departSpeed="26.615233689240057" departLane="1"/>
  <vehicle id="51" type="type1" route="wholeHighway" depart="809.0" departPos="95.0" departSpeed="27.214515970304877" departLane="1"/>
  <vehicle id="52" type="type1" route="wholeHighway" depart="816.0" departPos="95.0" departSpeed="27.587937635902193" departLane="1"/>
  <vehicle id="53" type="type1" route="wholeHighway" depart="823.0" departPos="95.0" departSpeed="27.27090079332871" departLane="1"/>
  <vehicle id="54" type="type1" route="wholeHighway" depart="871.0" departPos="95.0" departSpeed="31.795116033552773" departLane="1"/>
  <vehicle id="55" type="type1" route="wholeHighway" depart="897.0" departPos="95.0" departSpeed="32.484038366739014" departLane="1"/>
  <vehicle id="56" type="type1" route="wholeHighway" depart="911.0" departPos="95.0" departSpeed="30.85615425529194" departLane="1"/>
  <vehicle id="57" type="type1" route="wholeHighway" depart="938.0" departPos="95.0" departSpeed="31.11489483886723" departLane="1"/>
  <vehicle id="58" type="type1" route="wholeHighway" depart="966.0" departPos="95.0" departSpeed="30.091613469405218" departLane="1"/>
  <vehicle id="59" type="type1" route="wholeHighway" depart="986.0" departPos="95.0" departSpeed="27.066631055339297" departLane="1"/>
  <vehicle id="60" type="type1" route="wholeHighway" depart="1001.0" departPos="95.0" departSpeed="27.287331495751758" departLane="1"/>
  <vehicle id="61" type="type1" route="wholeHighway" depart="1025.0" departPos="95.0" departSpeed="28.104929668817626" departLane="1"/>
  <vehicle id="62" type="type1" route="wholeHighway" depart="1081.0" departPos="95.0" departSpeed="21.971028610003057" departLane="1"/>
  <vehicle id="63" type="type1" route="wholeHighway" depart="1098.0" departPos="95.0" departSpeed="32.405667123576414" departLane="1"/>
  <vehicle id="64" type="type1" route="wholeHighway" depart="1132.0" departPos="95.0" departSpeed="32.1269105301627" departLane="1"/>
  <vehicle id="65" type="type1" route="wholeHighway" depart="1149.0" departPos="95.0" departSpeed="32.36396531970599" departLane="1"/>
  <vehicle id="66" type="type1" route="wholeHighway" depart="1153.0" departPos="95.0" departSpeed="34.46116824534676" departLane="0"/>
  <vehicle id="67" type="type1" route="wholeHighway" depart="1167.0" departPos="95.0" departSpeed="33.833034515814155" departLane="0"/>
  <vehicle id="68" type="type1" route="wholeHighway" depart="1180.0" departPos="95.0" departSpeed="34.40435384547531" departLane="0"/>
  <vehicle id="69" type="type1" route="wholeHighway" depart="1195.0" departPos="95.0" departSpeed="33.239387187236765" departLane="0"/>
  <vehicle id="70" type="type1" route="wholeHighway" depart="1214.0" departPos="95.0" departSpeed="26.651334024373167" departLane="1"/>
  <vehicle id="71" type="type1" route="wholeHighway" depart="1227.0" departPos="95.0" departSpeed="27.989388087328972" departLane="1"/>
  <vehicle id="72" type="type1" route="wholeHighway" depart="1242.0" departPos="95.0" departSpeed="27.943273663130174" departLane="1"/>
  <vehicle id="73" type="type1" route="wholeHighway" depart="1224.0" departPos="95.0" departSpeed="29.734198348688054" departLane="1"/>
  <vehicle id="74" type="type1" route="wholeHighway" depart="1252.0" departPos="95.0" departSpeed="30.09532539747109" departLane="1"/>
  <vehicle id="75" type="type1" route="wholeHighway" depart="1279.0" departPos="95.0" departSpeed="35.9060253988533" departLane="0"/>
  <vehicle id="76" type="type1" route="wholeHighway" depart="1300.0" departPos="95.0" departSpeed="34.73614577414733" departLane="0"/>
  <vehicle id="77" type="type1" route="wholeHighway" depart="1321.0" departPos="95.0" departSpeed="35.27387940590161" departLane="0"/>
  <vehicle id="78" type="type1" route="wholeHighway" depart="1356.0" departPos="95.0" departSpeed="29.597564987200514" departLane="1"/>
  <vehicle id="79" type="type1" route="wholeHighway" depart="1390.0" departPos="95.0" departSpeed="31.206769850829158" departLane="1"/>
  <vehicle id="80" type="type1" route="wholeHighway" depart="1378.0" departPos="95.0" departSpeed="33.5085879383531" departLane="0"/>
  <vehicle id="81" type="type1" route="wholeHighway" depart="1398.0" departPos="95.0" departSpeed="30.641085714889496" departLane="1"/>
  <vehicle id="82" type="type1" route="wholeHighway" depart="1413.0" departPos="95.0" departSpeed="30.815340183955033" departLane="1"/>
  <vehicle id="83" type="type1" route="wholeHighway" depart="1427.0" departPos="95.0" departSpeed="31.097914639092004" departLane="1"/>
  <vehicle id="84" type="type1" route="wholeHighway" depart="1442.0" departPos="95.0" departSpeed="31.115248780188725" departLane="1"/>
  <vehicle id="85" type="type1" route="wholeHighway" depart="1441.0" departPos="95.0" departSpeed="36.0" departLane="0"/>
  <vehicle id="86" type="type1" route="wholeHighway" depart="1450.0" departPos="95.0" departSpeed="30.60838954073227" departLane="1"/>
  <vehicle id="87" type="type1" route="wholeHighway" depart="1466.0" departPos="95.0" departSpeed="31.565787207791214" departLane="1"/>
  <vehicle id="88" type="type1" route="wholeHighway" depart="1481.0" departPos="95.0" departSpeed="31.836759773630057" departLane="1"/>
  <vehicle id="89" type="type1" route="wholeHighway" depart="1502.0" departPos="95.0" departSpeed="32.18920139104441" departLane="1"/>
  <vehicle id="90" type="type1" route="wholeHighway" depart="1504.0" departPos="95.0" departSpeed="30.757260888122886" departLane="0"/>
  <vehicle id="91" type="type1" route="wholeHighway" depart="1520.0" departPos="95.0" departSpeed="27.710614873844836" departLane="1"/>
  <vehicle id="92" type="type1" route="wholeHighway" depart="1538.0" departPos="95.0" departSpeed="28.006466473321115" departLane="1"/>
  <vehicle id="93" type="type1" route="wholeHighway" depart="1554.0" departPos="95.0" departSpeed="27.746243285307436" departLane="1"/>
  <vehicle id="94" type="type1" route="wholeHighway" depart="1568.0" departPos="95.0" departSpeed="27.973905641883295" departLane="1"/>
  <vehicle id="95" type="type1" route="wholeHighway" depart="1516.0" departPos="95.0" departSpeed="36.0" departLane="0"/>
  <vehicle id="96" type="type1" route="wholeHighway" depart="1544.0" departPos="95.0" departSpeed="36.0" departLane="0"/>
  <vehicle id="97" type="type1" route="wholeHighway" depart="1607.0" departPos="95.0" departSpeed="28.3844636493396" departLane="0"/>
  <vehicle id="98" type="type1" route="wholeHighway" depart="1620.0" departPos="95.0" departSpeed="24.372041863555737" departLane="1"/>
  <vehicle id="99" type="type1" route="wholeHighway" depart="1641.0" departPos="95.0" departSpeed="23.131566939081164" departLane="1"/>
  <vehicle id="100" type="type1" route="wholeHighway" depart="1654.0" departPos="95.0" departSpeed="24.57363196484688" departLane="1"/>
  <vehicle id="101" type="type1" route="wholeHighway" depart="1639.0" departPos="95.0" departSpeed="30.4614416342268" departLane="0"/>
  <vehicle id="102" type="type1" route="wholeHighway" depart="1682.0" departPos="95.0" departSpeed="31.438193432292834" departLane="0"/>
  <vehicle id="103" type="type1" route="wholeHighway" depart="1692.0" departPos="95.0" departSpeed="24.27781941787" departLane="1"/>
  <vehicle id="104" type="type1" route="wholeHighway" depart="1699.0" departPos="95.0" departSpeed="24.28452311214162" departLane="1"/>
  <vehicle id="105" type="type1" route="wholeHighway" depart="1708.0" departPos="95.0" departSpeed="25.345444472618777" departLane="1"/>
  <vehicle id="106" type="type1" route="wholeHighway" depart="1718.0" departPos="95.0" departSpeed="24.513896469420047" departLane="1"/>
  <vehicle id="107" type="type1" route="wholeHighway" depart="1724.0" departPos="95.0" departSpeed="25.474836487404847" departLane="1"/>
  <vehicle id="108" type="type1" route="wholeHighway" depart="1694.0" departPos="95.0" departSpeed="31.36193141499905" departLane="1"/>
  <vehicle id="109" type="type1" route="wholeHighway" depart="1706.0" departPos="95.0" departSpeed="31.647010044888226" departLane="1"/>
  <vehicle id="110" type="type1" route="wholeHighway" depart="1715.0" departPos="95.0" departSpeed="31.896124839697617" departLane="1"/>
  <vehicle id="111" type="type1" route="wholeHighway" depart="1726.0" departPos="95.0" departSpeed="30.73102467043932" departLane="1"/>
  <vehicle id="112" type="type1" route="wholeHighway" depart="1738.0" departPos="95.0" departSpeed="30.646647395531936" departLane="1"/>
  <vehicle id="113" type="type1" route="wholeHighway" depart="1748.0" departPos="95.0" departSpeed="31.513861167887065" departLane="1"/>
  <vehicle id="114" type="type1" route="wholeHighway" depart="1760.0" departPos="95.0" departSpeed="27.02515407704852" departLane="1"/>
  <vehicle id="115" type="type1" route="wholeHighway" depart="1786.0" departPos="95.0" departSpeed="25.259929955378244" departLane="1"/>
  <vehicle id="116" type="type1" route="wholeHighway" depart="1802.0" departPos="95.0" departSpeed="25.19069718196013" departLane="1"/>
  <vehicle id="117" type="type1" route="wholeHighway" depart="1852.0" departPos="95.0" departSpeed="32.79735743327525" departLane="0"/>
  <vehicle id="118" type="type1" route="wholeHighway" depart="1880.0" departPos="95.0" departSpeed="32.97759399248397" departLane="1"/>
  <vehicle id="119" type="type1" route="wholeHighway" depart="1920.0" departPos="95.0" departSpeed="32.85832982115219" departLane="1"/>
  <vehicle id="120" type="type1" route="wholeHighway" depart="1920.0" departPos="95.0" departSpeed="35.76309407080579" departLane="0"/>
  <vehicle id="121" type="type1" route="wholeHighway" depart="1933.0" departPos="95.0" departSpeed="28.791816823154907" departLane="1"/>
  <vehicle id="122" type="type1" route="wholeHighway" depart="1951.0" departPos="95.0" departSpeed="29.352957421467227" departLane="1"/>
  <vehicle id="123" type="type1" route="wholeHighway" depart="1967.0" departPos="95.0" departSpeed="29.136776059520898" departLane="1"/>
  <vehicle id="124" type="type1" route="wholeHighway" depart="1983.0" departPos="95.0" departSpeed="28.972169176369068" departLane="1"/>
  <vehicle id="125" type="type1" route="wholeHighway" depart="1925.0" departPos="95.0" departSpeed="29.65680299726587" departLane="1"/>
  <vehicle id="126" type="type1" route="wholeHighway" depart="1932.0" departPos="95.0" departSpeed="29.39884518711616" departLane="1"/>
  <vehicle id="127" type="type1" route="wholeHighway" depart="1941.0" departPos="95.0" departSpeed="29.77009197861839" departLane="1"/>
  <vehicle id="128" type="type1" route="wholeHighway" depart="1950.0" departPos="95.0" departSpeed="28.053507871566353" departLane="1"/>
  <vehicle id="129" type="type1" route="wholeHighway" depart="1956.0" departPos="95.0" departSpeed="29.501642963338416" departLane="1"/>
  <vehicle id="130" type="type1" route="wholeHighway" depart="1969.0" departPos="95.0" departSpeed="29.758710547574" departLane="1"/>
  <vehicle id="131" type="type1" route="wholeHighway" depart="1974.0" departPos="95.0" departSpeed="28.446615672508642" departLane="1"/>
  <vehicle id="132" type="type1" route="wholeHighway" depart="1999.0" departPos="95.0" departSpeed="36.0" departLane="0"/>
  <vehicle id="133" type="type1" route="wholeHighway" depart="2024.0" departPos="95.0" departSpeed="35.8981313273461" departLane="0"/>
  <vehicle id="134" type="type1" route="wholeHighway" depart="2045.0" departPos="95.0" departSpeed="36.0" departLane="0"/>
  <vehicle id="135" type="type1" route="wholeHighway" depart="2071.0" departPos="95.0" departSpeed="26.302011712708005" departLane="1"/>
  <vehicle id="136" type="type1" route="wholeHighway" depart="2089.0" departPos="95.0" departSpeed="26.241079680807243" departLane="1"/>
  <vehicle id="137" type="type1" route="wholeHighway" depart="2103.0" departPos="95.0" departSpeed="26.84518347212826" departLane="1"/>
  <vehicle id="138" type="type1" route="wholeHighway" depart="2053.0" departPos="95.0" departSpeed="33.236315450415354" departLane="0"/>
  <vehicle id="139" type="type1" route="wholeHighway" depart="2069.0" departPos="95.0" departSpeed="34.301285828278324" departLane="0"/>
  <vehicle id="140" type="type1" route="wholeHighway" depart="2086.0" departPos="95.0" departSpeed="34.686425587969424" departLane="0"/>
  <vehicle id="141" type="type1" route="wholeHighway" depart="2100.0" departPos="95.0" departSpeed="34.23259728381971" departLane="0"/>
  <vehicle id="142" type="type1" route="wholeHighway" depart="2116.0" departPos="95.0" departSpeed="27.871845466493653" departLane="1"/>
  <vehicle id="143" type="type1" route="wholeHighway" depart="2127.0" departPos="95.0" departSpeed="27.01480340699239" departLane="1"/>
  <vehicle id="144" type="type1" route="wholeHighway" depart="2143.0" departPos="95.0" departSpeed="28.209872918835703" departLane="1"/>
  <vehicle id="145" type="type1" route="wholeHighway" depart="2151.0" departPos="95.0" departSpeed="28.90009455994862" departLane="1"/>
  <vehicle id="146" type="type1" route="wholeHighway" depart="2171.0" departPos="95.0" departSpeed="28.944018028965694" departLane="1"/>
  <vehicle id="147" type="type1" route="wholeHighway" depart="2112.0" departPos="95.0" departSpeed="25.2251937286002" departLane="1"/>
  <vehicle id="148" type="type1" route="wholeHighway" depart="2129.0" departPos="95.0" departSpeed="25.970826778724636" departLane="1"/>
  <vehicle id="149" type="type1" route="wholeHighway" depart="2150.0" departPos="95.0" departSpeed="26.27304417265511" departLane="1"/>
  <vehicle id="150" type="type1" route="wholeHighway" depart="2224.0" departPos="95.0" departSpeed="27.71811658347588" departLane="0"/>
  <vehicle id="151" type="type1" route="wholeHighway" depart="2244.0" departPos="95.0" departSpeed="28.354956633621537" departLane="1"/>
  <vehicle id="152" type="type1" route="wholeHighway" depart="2258.0" departPos="95.0" departSpeed="27.444120423821904" departLane="1"/>
  <vehicle id="153" type="type1" route="wholeHighway" depart="2274.0" departPos="95.0" departSpeed="27.171690821566695" departLane="1"/>
  <vehicle id="154" type="type1" route="wholeHighway" depart="2243.0" departPos="95.0" departSpeed="36.0" departLane="1"/>
  <vehicle id="155" type="type1" route="wholeHighway" depart="2262.0" departPos="95.0" departSpeed="36.0" departLane="1"/>
  <vehicle id="156" type="type1" route="wholeHighway" depart="2279.0" departPos="95.0" departSpeed="36.0" departLane="1"/>
  <vehicle id="157" type="type1" route="wholeHighway" depart="2302.0" departPos="95.0" departSpeed="35.49707847661993" departLane="0"/>
  <vehicle id="158" type="type1" route="wholeHighway" depart="2319.0" departPos="95.0" departSpeed="35.30582521083815" departLane="0"/>
  <vehicle id="159" type="type1" route="wholeHighway" depart="2340.0" departPos="95.0" departSpeed="34.25776389152277" departLane="0"/>
  <vehicle id="160" type="type1" route="wholeHighway" depart="2368.0" departPos="95.0" departSpeed="30.38788273192951" departLane="1"/>
  <vehicle id="161" type="type1" route="wholeHighway" depart="2385.0" departPos="95.0" departSpeed="31.52768331436692" departLane="1"/>
  <vehicle id="162" type="type1" route="wholeHighway" depart="2404.0" departPos="95.0" departSpeed="30.24659637946756" departLane="1"/>
  <vehicle id="163" type="type1" route="wholeHighway" depart="2403.0" departPos="95.0" departSpeed="36.0" departLane="0"/>
  <vehicle id="164" type="type1" route="wholeHighway" depart="2423.0" departPos="95.0" departSpeed="31.73499317883934" departLane="1"/>
  <vehicle id="165" type="type1" route="wholeHighway" depart="2446.0" departPos="95.0" departSpeed="31.96855791442794" departLane="1"/>
  <vehicle id="166" type="type1" route="wholeHighway" depart="2463.0" departPos="95.0" departSpeed="32.017102609759455" departLane="1"/>
  <vehicle id="167" type="type1" route="wholeHighway" depart="2416.0" departPos="95.0" departSpeed="29.562817332815992" departLane="1"/>
  <vehicle id="168" type="type1" route="wholeHighway" depart="2432.0" departPos="95.0" departSpeed="29.197301695100876" departLane="1"/>
  <vehicle id="169" type="type1" route="wholeHighway" depart="2450.0" departPos="95.0" departSpeed="28.635698067891695" departLane="1"/>
  <vehicle id="170" type="type1" route="wholeHighway" depart="2457.0" departPos="95.0" departSpeed="29.032930266359507" departLane="1"/>
  <vehicle id="171" type="type1" route="wholeHighway" depart="2486.0" departPos="95.0" departSpeed="31.74349188850083" departLane="1"/>
  <vehicle id="172" type="type1" route="wholeHighway" depart="2516.0" departPos="95.0" departSpeed="31.16876304497138" departLane="1"/>
  <vehicle id="173" type="type1" route="wholeHighway" depart="2574.0" departPos="95.0" departSpeed="27.466252069573223" departLane="0"/>
  <vehicle id="174" type="type1" route="wholeHighway" depart="2589.0" departPos="95.0" departSpeed="30.751293427756405" departLane="1"/>
  <vehicle id="175" type="type1" route="wholeHighway" depart="2596.0" departPos="95.0" departSpeed="30.727194860038594" departLane="1"/>
  <vehicle id="176" type="type1" route="wholeHighway" depart="2605.0" departPos="95.0" departSpeed="29.65551036253595" departLane="1"/>
  <vehicle id="177" type="type1" route="wholeHighway" depart="2615.0" departPos="95.0" departSpeed="29.419206948535763" departLane="1"/>
  <vehicle id="178" type="type1" route="wholeHighway" depart="2592.0" departPos="95.0" departSpeed="32.04998577360506" departLane="1"/>
  <vehicle id="179" type="type1" route="wholeHighway" depart="2608.0" departPos="95.0" departSpeed="31.487201295831" departLane="1"/>
  <vehicle id="180" type="type1" route="wholeHighway" depart="2621.0" departPos="95.0" departSpeed="30.589284563222467" departLane="1"/>
  <vehicle id="181" type="type1" route="wholeHighway" depart="2637.0" departPos="95.0" departSpeed="30.980906844264695" departLane="1"/>
  <vehicle id="182" type="type1" route="wholeHighway" depart="2695.0" departPos="95.0" departSpeed="27.872933071459343" departLane="0"/>
  <vehicle id="183" type="type1" route="wholeHighway" depart="2715.0" departPos="95.0" departSpeed="25.536241671946325" departLane="1"/>
  <vehicle id="184" type="type1" route="wholeHighway" depart="2736.0" departPos="95.0" departSpeed="26.095506588942243" departLane="1"/>
  <vehicle id="185" type="type1" route="wholeHighway" depart="2750.0" departPos="95.0" departSpeed="26.49851866795501" departLane="1"/>
  <vehicle id="186" type="type1" route="wholeHighway" depart="2765.0" departPos="95.0" departSpeed="26.746387069529018" departLane="1"/>
  <vehicle id="187" type="type1" route="wholeHighway" depart="2724.0" departPos="95.0" departSpeed="34.925625487482044" departLane="0"/>
  <vehicle id="188" type="type1" route="wholeHighway" depart="2756.0" departPos="95.0" departSpeed="34.26532137905105" departLane="0"/>
  <vehicle id="189" type="type1" route="wholeHighway" depart="2792.0" departPos="95.0" departSpeed="24.491080366294096" departLane="1"/>
  <vehicle id="190" type="type1" route="wholeHighway" depart="2816.0" departPos="95.0" departSpeed="25.651511463492596" departLane="1"/>
  <vehicle id="191" type="type1" route="wholeHighway" depart="2774.0" departPos="95.0" departSpeed="31.718654048342096" departLane="1"/>
  <vehicle id="192" type="type1" route="wholeHighway" depart="2793.0" departPos="95.0" departSpeed="32.27801511771288" departLane="1"/>
  <vehicle id="193" type="type1" route="wholeHighway" depart="2805.0" departPos="95.0" departSpeed="31.75566135532654" departLane="1"/>
  <vehicle id="194" type="type1" route="wholeHighway" depart="2812.0" departPos="95.0" departSpeed="32.47807154984145" departLane="1"/>
  <vehicle id="195" type="type1" route="wholeHighway" depart="2833.0" departPos="95.0" departSpeed="29.443260384422143" departLane="1"/>
  <vehicle id="196" type="type1" route="wholeHighway" depart="2844.0" departPos="95.0" departSpeed="30.080912941987698" departLane="1"/>
  <vehicle id="197" type="type1" route="wholeHighway" depart="2856.0" departPos="95.0" departSpeed="29.824048288270255" departLane="1"/>
  <vehicle id="198" type="type1" route="wholeHighway" depart="2866.0" departPos="95.0" departSpeed="28.775586240407595" departLane="1"/>
  <vehicle id="199" type="type1" route="wholeHighway" depart="2924.0" departPos="95.0" departSpeed="33.1009074506709" departLane="0"/>
  <vehicle id="200" type="type1" route="wholeHighway" depart="2955.0" departPos="95.0" departSpeed="33.61475312968047" departLane="0"/>
  <vehicle id="201" type="type1" route="wholeHighway" depart="3013.0" departPos="95.0" departSpeed="32.12474662205419" departLane="1"/>
  <vehicle id="202" type="type1" route="wholeHighway" depart="2999.0" departPos="95.0" departSpeed="34.90624431108392" departLane="0"/>
  <vehicle id="203" type="type1" route="wholeHighway" depart="3009.0" departPos="95.0" departSpeed="27.052435797154484" departLane="1"/>
  <vehicle id="204" type="type1" route="wholeHighway" depart="3018.0" departPos="95.0" departSpeed="27.14227683812296" departLane="1"/>
  <vehicle id="205" type="type1" route="wholeHighway" depart="3021.0" departPos="95.0" departSpeed="27.44539552957179" departLane="1"/>
  <vehicle id="206" type="type1" route="wholeHighway" depart="3032.0" departPos="95.0" departSpeed="25.501772006239474" departLane="1"/>
  <vehicle id="207" type="type1" route="wholeHighway" depart="3038.0" departPos="95.0" departSpeed="26.41912394593557" departLane="1"/>
  <vehicle id="208" type="type1" route="wholeHighway" depart="3045.0" departPos="95.0" departSpeed="25.862248686392892" departLane="1"/>
  <vehicle id="209" type="type1" route="wholeHighway" depart="3052.0" departPos="95.0" departSpeed="27.36738400591778" departLane="1"/>
  <vehicle id="210" type="type1" route="wholeHighway" depart="3061.0" departPos="95.0" departSpeed="25.44554572661263" departLane="1"/>
  <vehicle id="211" type="type1" route="wholeHighway" depart="3025.0" departPos="95.0" departSpeed="26.332412457657725" departLane="1"/>
  <vehicle id="212" type="type1" route="wholeHighway" depart="3051.0" departPos="95.0" departSpeed="27.448205897150245" departLane="1"/>
  <vehicle id="213" type="type1" route="wholeHighway" depart="3070.0" departPos="95.0" departSpeed="26.451371884306955" departLane="1"/>
  <vehicle id="214" type="type1" route="wholeHighway" depart="3072.0" departPos="95.0" departSpeed="30.84698582925241" departLane="1"/>
  <vehicle id="215" type="type1" route="wholeHighway" depart="3092.0" departPos="95.0" departSpeed="32.75356160626938" departLane="1"/>
  <vehicle id="216" type="type1" route="wholeHighway" depart="3106.0" departPos="95.0" departSpeed="32.84905096561379" departLane="1"/>
  <vehicle id="217" type="type1" route="wholeHighway" depart="3140.0" departPos="95.0" departSpeed="33.70373648238131" departLane="0"/>
  <vehicle id="218" type="type1" route="wholeHighway" depart="3160.0" departPos="95.0" departSpeed="33.76119393421447" departLane="0"/>
  <vehicle id="219" type="type1" route="wholeHighway" depart="3176.0" departPos="95.0" departSpeed="32.8694306714746" departLane="0"/>